Check Keywords Warn

Header
  Mesh DB "." "elmesh"
End

Simulation
  Max Output Level = 3
  Coordinate System = Cartesian 3D
  Simulation Type = Steady State
  Steady State Max Iterations = 1
! Output File = "elstatics.result"
! Post File = "elstatics.ep"
End

Constants
  Permittivity Of Vacuum = 8.8542e-12
End

Body 1
  Equation = 1
  Material = 1
End

Equation 1
  Active Solvers(2) = 1 2
  Calculate Electric Energy = True
End

Solver 1
  Equation = Stat Elec Solver
  Variable = Potential
  Variable DOFs = 1
  Procedure = "./StatElecSolve" "StatElecSolver"
  Calculate Electric Field = True
  Calculate Electric Flux = False
  Potential Difference = 1.0e6
  Linear System Solver = Iterative
  Linear System Iterative Method = BiCGStab
  Linear System Max Iterations = 200
  Linear System Convergence Tolerance = 1.0e-07
  Linear System Preconditioning = ILU1
  Linear System ILUT Tolerance = 1.0e-03
  Nonlinear System Max Iterations = 1
  Nonlinear System Convergence Tolerance = 1.0e-4
  Nonlinear System Newton After Tolerance = 1.0e-3
  Nonlinear System Newton After Iterations = 10
  Nonlinear System Relaxation Factor = 1
  Steady State Convergence Tolerance = 1.0e-4
End

Solver 2
  Equation = Electric Force
  Procedure = "ElectricForce" "StatElecForce"
End

Solver 3
  Exec Solver = Never
  Equation = SaveScalars
  Procedure = "SaveData" "SaveScalars"
  Filename = "scalars.dat"
End

Material 1
  Relative Permittivity = 1
End

Boundary Condition 1
  Target Boundaries = 4
  Potential = 0.0
  Calculate Electric Force = True
End

Boundary Condition 2
  Target Boundaries = 3
  Potential = 1.0e6
End

$fprintf( stderr, "TEST CASE 1\n");
RUN
$fprintf( stderr, "END TEST CASE 1: Target NRM=590600.227643, EPS=1.0e-3\n" );

!End Of File

