/tmp/elmer/ifc/bin/ElmerGrid 1 2 coat

Starting program Elmergrid
Elmergrid reading in-line arguments
Output will be saved to file coat.

Elmergrid loading data:
Loading the geometry from file 'coat.grd'.
Loading old version of Elmergrid file.
Loading the geometry from file 'coat.grd'.
Loading Elmergrid file: VERSION 080500

Defining the coordinate system (2-DIM).
Loading [3 3] subcell intervals in 2D
Loading material structure
Loaded 1 geometry mappings
Loading element meshing no 1
Loading element ratios
Loading element densities
Loading 5 boundary conditions
Found 1 divisions for grid
SetElementDivision
The mesh is devided into 4 separate subcells.
Created 33 radial and 44 axial divisions, total of 416 elements.
Loading ElmerGrid commands from file 'coat.grd'.
Reached the end of command file
Read commands from a file

Elmergrid creating and manipulating meshes:
4 cells were created.
Numbered 477 knots in 416 4-node elements.
Numbering order was <y><x> and max levelwidth 47.
Maximum elementsize is 5.755e-04 and minimum 1.057e-04.
44 element sides between materials -4 and 1 were located to type 1.
16 element sides between materials 3 and 1 were located to type 2.
16 element sides between materials -1 and 1 were located to type 3.
16 element sides between materials -3 and 1 were located to type 4.
37 element sides between materials 2 and 1 were located to type 5.

Elmergrid saving data:
Saving mesh in ElmerSolver format to directory coat.
Reusing an existing directory
Saving 477 coordinates to mesh.nodes.
Saving 416 element topologies to mesh.elements.
Saving boundary elements to mesh.boundary.
Saving header info to mesh.header.

Thank you for using Elmergrid!
Send bug reports and feature wishes to Peter Råback, raback@csc.fi
/tmp/elmer/ifc/bin/Solver
ELMER SOLVER STARTED AT: 2005/05/17 10:46:45
MAIN: 
MAIN: ===========================================================
MAIN:  E L M E R   S O L V E R   S T A R T I N G,  W E L C O M E
MAIN: ===========================================================
MAIN: 
MAIN: 
MAIN: -----------------------
MAIN: Reading Model ...
WARNING:: Model Input:  Unknown keyword: [internal move boundary] in section: [solver 1]
WARNING:: Model Input:  Unknown keyword: [perform mapping] in section: [solver 2]
WARNING:: Model Input:  Unknown keyword: [free surface reduced] in section: [boundary condition 2]
WARNING:: Model Input:  Unknown keyword: [internal move boundary] in section: [solver 1]
WARNING:: Model Input:  Unknown keyword: [perform mapping] in section: [solver 2]
WARNING:: Model Input:  Unknown keyword: [free surface reduced] in section: [boundary condition 2]
MAIN: Done
MAIN: -----------------------
OptimizeBandwidth: ---------------------------------------------------------
OptimizeBandwidth: Computing matrix structure for: navier-stokes...done.
OptimizeBandwidth:  Half bandwidth without optimization:           47
OptimizeBandwidth: 
OptimizeBandwidth: Bandwidth Optimization ...done.
OptimizeBandwidth:  Half bandwidth after optimization:           28
OptimizeBandwidth: ---------------------------------------------------------
OptimizeBandwidth: ---------------------------------------------------------
OptimizeBandwidth: Computing matrix structure for: free surface reduced...done.
OptimizeBandwidth:  Half bandwidth without optimization:           47
OptimizeBandwidth: 
OptimizeBandwidth: Bandwidth Optimization ...done.
OptimizeBandwidth:  Half bandwidth after optimization:           28
OptimizeBandwidth: ---------------------------------------------------------
OptimizeBandwidth: ---------------------------------------------------------
OptimizeBandwidth: Computing matrix structure for: mesh update...done.
OptimizeBandwidth:  Half bandwidth without optimization:           47
OptimizeBandwidth: 
OptimizeBandwidth: Bandwidth Optimization ...done.
OptimizeBandwidth:  Half bandwidth after optimization:           28
OptimizeBandwidth: ---------------------------------------------------------
MAIN: 
MAIN: -------------------------------------
MAIN:  Steady state iteration:            1
MAIN: -------------------------------------
MAIN: 
FlowSolve: 
FlowSolve: 
FlowSolve: -------------------------------------
FlowSolve:  NAVIER-STOKES ITERATION           1
FlowSolve: -------------------------------------
FlowSolve: 
FlowSolve: Starting Assembly...
FlowSolve: Assembly done
FlowSolve: Set boundaries done
CRS_IncompleteLU: ILU(1) (Real), Starting Factorization:
CRS_IncompleteLU: ILU(1) (Real), NOF nonzeros:     48178
CRS_IncompleteLU: ILU(1) (Real), filling (%) :       136
CRS_IncompleteLU: ILU(1) (Real), Factorization ready at (s):     0.03
       1 0.2987E-04
       2 0.8279E-05
       3 0.2500E-05
       4 0.7591E-05
       5 0.1149E-06
       6 0.2104E-06
       7 0.1676E-08
       8 0.7170E-10
       8 0.7170E-10
FlowSolve: iter:    1 Assembly: (s)    0.72    0.72
FlowSolve: iter:    1 Solve:    (s)    0.06    0.06
FlowSolve:  Result Norm     :    2.37731238723728
FlowSolve:  Relative Change :    2.00000000000000
FlowSolve: 
FlowSolve: 
FlowSolve: -------------------------------------
FlowSolve:  NAVIER-STOKES ITERATION           2
FlowSolve: -------------------------------------
FlowSolve: 
FlowSolve: Starting Assembly...
FlowSolve: Assembly done
FlowSolve: Set boundaries done
CRS_IncompleteLU: ILU(1) (Real), Starting Factorization:
CRS_IncompleteLU: ILU(1) (Real), NOF nonzeros:     48178
CRS_IncompleteLU: ILU(1) (Real), filling (%) :       136
CRS_IncompleteLU: ILU(1) (Real), Factorization ready at (s):     0.02
       1 0.8958E-05
       2 0.2482E-05
       3 0.7487E-06
       4 0.2244E-05
       5 0.3444E-07
       6 0.6272E-07
       7 0.5026E-09
       8 0.2149E-10
       8 0.2149E-10
FlowSolve: iter:    2 Assembly: (s)    0.71    1.43
FlowSolve: iter:    2 Solve:    (s)    0.06    0.12
FlowSolve:  Result Norm     :    2.71665950088121
FlowSolve:  Relative Change :   0.133234780676920
FlowSolve: 
FlowSolve: 
FlowSolve: -------------------------------------
FlowSolve:  NAVIER-STOKES ITERATION           3
FlowSolve: -------------------------------------
FlowSolve: 
FlowSolve: Starting Assembly...
FlowSolve: Assembly done
FlowSolve: Set boundaries done
CRS_IncompleteLU: ILU(1) (Real), Starting Factorization:
CRS_IncompleteLU: ILU(1) (Real), NOF nonzeros:     48178
CRS_IncompleteLU: ILU(1) (Real), filling (%) :       136
CRS_IncompleteLU: ILU(1) (Real), Factorization ready at (s):     0.02
       1 0.2686E-05
       2 0.7443E-06
       3 0.2243E-06
       4 0.6634E-06
       5 0.1033E-07
       6 0.1875E-07
       7 0.1508E-09
       8 0.6448E-11
       8 0.6448E-11
FlowSolve: iter:    3 Assembly: (s)    0.71    2.14
FlowSolve: iter:    3 Solve:    (s)    0.05    0.17
FlowSolve:  Result Norm     :    2.82601082924537
FlowSolve:  Relative Change :   3.945799473939230E-002
FlowSolve: 
FlowSolve: 
FlowSolve: -------------------------------------
FlowSolve:  NAVIER-STOKES ITERATION           4
FlowSolve: -------------------------------------
FlowSolve: 
FlowSolve: Starting Assembly...
FlowSolve: Assembly done
FlowSolve: Set boundaries done
CRS_IncompleteLU: ILU(1) (Real), Starting Factorization:
CRS_IncompleteLU: ILU(1) (Real), NOF nonzeros:     48178
CRS_IncompleteLU: ILU(1) (Real), filling (%) :       136
CRS_IncompleteLU: ILU(1) (Real), Factorization ready at (s):     0.02
       1 0.8056E-06
       2 0.2231E-06
       3 0.6712E-07
       4 0.1951E-06
       5 0.3095E-08
       6 0.5580E-08
       7 0.4523E-10
       7 0.4523E-10
FlowSolve: iter:    4 Assembly: (s)    0.73    2.87
FlowSolve: iter:    4 Solve:    (s)    0.04    0.21
FlowSolve:  Result Norm     :    2.85935347541409
FlowSolve:  Relative Change :   1.172929099420974E-002
FlowSolve: 
FlowSolve: 
FlowSolve: -------------------------------------
FlowSolve:  NAVIER-STOKES ITERATION           5
FlowSolve: -------------------------------------
FlowSolve: 
FlowSolve: Starting Assembly...
FlowSolve: Assembly done
FlowSolve: Set boundaries done
CRS_IncompleteLU: ILU(1) (Real), Starting Factorization:
CRS_IncompleteLU: ILU(1) (Real), NOF nonzeros:     48178
CRS_IncompleteLU: ILU(1) (Real), filling (%) :       136
CRS_IncompleteLU: ILU(1) (Real), Factorization ready at (s):     0.01
       1 0.2417E-06
       2 0.6694E-07
       3 0.2014E-07
       4 0.5847E-07
       5 0.9282E-09
       6 0.1678E-08
       7 0.1356E-10
       7 0.1356E-10
FlowSolve: iter:    5 Assembly: (s)    0.73    3.60
FlowSolve: iter:    5 Solve:    (s)    0.04    0.25
FlowSolve:  Result Norm     :    2.86940439259483
FlowSolve:  Relative Change :   3.508934192130193E-003
SolveEquations: (NRM,RELC): (   2.86940439259       2.00000000000      ) :: navier-stokes
FreeSurfaceReduced: -------------------------------------
FreeSurfaceReduced: 2D Free Surface Solver:
FreeSurfaceReduced: -------------------------------------
FreeSurfaceReduced: Separate Free surfaces found 1
FreeSurfaceReduced: DrawDirection was found to be -2
FreeSurfaceReduced: First upwinds node for surface is   332
FreeSurfaceReduced: Free surface flux:                1.487547E-06
FreeSurfaceReduced: Free surface error:               2.241596E-01
FreeSurfaceReduced: Minimum thickness:                5.155161E-04
FreeSurfaceReduced: Maximum thickness:                9.000000E-04
SolveEquations: (NRM,RELC): (   1.22415962371       2.00000000000      ) :: free surface reduced
MeshSolve: 
MeshSolve: -------------------------------------
MeshSolve: MESH UPDATE SOLVER:
MeshSolve: -------------------------------------
MeshSolve: 
MeshSolve: Starting assembly...
MeshSolve: Assembly done
MeshSolve: Set boundaries done
CRS_IncompleteLU: ILU(0) (Real), Starting Factorization:
CRS_IncompleteLU: ILU(0) (Real), NOF nonzeros:     15701
CRS_IncompleteLU: ILU(0) (Real), filling (%) :       100
CRS_IncompleteLU: ILU(0) (Real), Factorization ready at (s):     0.00
       1 0.8937E-02
       2 0.2942E-02
       3 0.9057E-03
       4 0.2166E-03
       5 0.8716E-04
       6 0.4836E-04
       7 0.2139E-04
       8 0.6997E-05
       9 0.2283E-05
      10 0.5995E-06
      11 0.3477E-06
      12 0.1793E-05
      13 0.9926E-08
      14 0.2149E-08
      15 0.6569E-09
      16 0.1291E-09
      17 0.1619E-10
      18 0.1328E-11
      19 0.1371E-12
      19 0.1371E-12
MeshSolve:  Result Norm   :   5.208601251160290E-005
MeshSolve:  Relative Change :    2.00000000000000
SolveEquations: (NRM,RELC): (  0.520860125116E-04   2.00000000000      ) :: mesh update
ForceCompute: -------------------------------------
ForceCompute: Computing Fluidic Force:
ForceCompute: -------------------------------------
ForceCompute: Forces on Boundary bc 1
ForceCompute: Fluidic Force:    -1.753944E-02     1.599122E-01     0.000000E+00
ForceCompute: Resultant Force:     1.608712E-01
ForceCompute: Contact Area:        6.911504E-06
SolveEquations: (NRM,RELC): (   0.00000000000       0.00000000000      ) :: fluidic force
SaveScalars: -----------------------------------------
SaveScalars:  Saving scalar values to file scalars.dat
SaveScalars: -----------------------------------------
SolveEquations: (NRM,RELC): (   0.00000000000       0.00000000000      ) :: savescalars
SaveLine: -------------------------------------
SaveLine:  Saving line data to file kurvi.dat
SaveLine: -------------------------------------
SolveEquations: (NRM,RELC): (   0.00000000000       0.00000000000      ) :: saveline
MAIN: 
MAIN: -------------------------------------
MAIN:  Steady state iteration:            2
MAIN: -------------------------------------
MAIN: 
FlowSolve: 
FlowSolve: 
FlowSolve: -------------------------------------
FlowSolve:  NAVIER-STOKES ITERATION           1
FlowSolve: -------------------------------------
FlowSolve: 
FlowSolve: Starting Assembly...
FlowSolve: Assembly done
FlowSolve: Set boundaries done
CRS_IncompleteLU: ILU(1) (Real), Starting Factorization:
CRS_IncompleteLU: ILU(1) (Real), NOF nonzeros:     48178
CRS_IncompleteLU: ILU(1) (Real), filling (%) :       136
CRS_IncompleteLU: ILU(1) (Real), Factorization ready at (s):     0.02
       1 0.2055E-05
       2 0.2674E-06
       3 0.5298E-07
       4 0.7070E-07
       5 0.4770E-07
       6 0.6567E-09
       7 0.1609E-09
       8 0.6449E-11
       8 0.6449E-11
FlowSolve: iter:    1 Assembly: (s)    0.73    0.73
FlowSolve: iter:    1 Solve:    (s)    0.05    0.05
FlowSolve:  Result Norm     :    2.95913891059544
FlowSolve:  Relative Change :   3.079140475853891E-002
FlowSolve: 
FlowSolve: 
FlowSolve: -------------------------------------
FlowSolve:  NAVIER-STOKES ITERATION           2
FlowSolve: -------------------------------------
FlowSolve: 
FlowSolve: Starting Assembly...
FlowSolve: Assembly done
FlowSolve: Set boundaries done
CRS_IncompleteLU: ILU(1) (Real), Starting Factorization:
CRS_IncompleteLU: ILU(1) (Real), NOF nonzeros:     48178
CRS_IncompleteLU: ILU(1) (Real), filling (%) :       136
CRS_IncompleteLU: ILU(1) (Real), Factorization ready at (s):     0.01
       1 0.6165E-06
       2 0.8019E-07
       3 0.1589E-07
       4 0.2110E-07
       5 0.1423E-07
       6 0.1968E-09
       7 0.4835E-10
       7 0.4835E-10
FlowSolve: iter:    2 Assembly: (s)    0.73    1.46
FlowSolve: iter:    2 Solve:    (s)    0.03    0.08
FlowSolve:  Result Norm     :    2.98714283570438
FlowSolve:  Relative Change :   9.418970140917721E-003
FlowSolve: 
FlowSolve: 
FlowSolve: -------------------------------------
FlowSolve:  NAVIER-STOKES ITERATION           3
FlowSolve: -------------------------------------
FlowSolve: 
FlowSolve: Starting Assembly...
FlowSolve: Assembly done
FlowSolve: Set boundaries done
CRS_IncompleteLU: ILU(1) (Real), Starting Factorization:
CRS_IncompleteLU: ILU(1) (Real), NOF nonzeros:     48178
CRS_IncompleteLU: ILU(1) (Real), filling (%) :       136
CRS_IncompleteLU: ILU(1) (Real), Factorization ready at (s):     0.02
       1 0.1849E-06
       2 0.2406E-07
       3 0.4768E-08
       4 0.5721E-08
       5 0.3833E-08
       6 0.5914E-10
       6 0.5914E-10
FlowSolve: iter:    3 Assembly: (s)    0.73    2.19
FlowSolve: iter:    3 Solve:    (s)    0.04    0.12
FlowSolve:  Result Norm     :    2.99563728180425
FlowSolve:  Relative Change :   2.839631720716154E-003
FlowSolve: 
FlowSolve: 
FlowSolve: -------------------------------------
FlowSolve:  NAVIER-STOKES ITERATION           4
FlowSolve: -------------------------------------
FlowSolve: 
FlowSolve: Starting Assembly...
FlowSolve: Assembly done
FlowSolve: Set boundaries done
CRS_IncompleteLU: ILU(1) (Real), Starting Factorization:
forrtl: error (69): process interrupted (SIGINT)
make: *** [run] Error 1
