Header
  Mesh DB "." "diffuser"
End

Simulation
  Coordinate System = Cartesian 2D
  Max Output Level = 3

  Simulation Type = Steady
  Steady State Max Iterations  = 500

! Post File = "diffuser.ep"
! Output File = "diffuser.dat"
  Restart File = "channel.dat"
  Restart Position = 0
End


Body 1
  Name  = "Flow"
  Equation  = 1
  Material  = 1
  Initial Condition = 1
End


Solver 1
  Exec Solver = Before Simulation
  Equation = Distance

  Procedure = "DistanceSolve" "DistanceSolver"
  Variable = "Wall Distance"
 
  Nonlinear System Max Iterations = 200
  Nonlinear System Convergence Tolerance = 1.0e-5

  Nonlinear System Relaxation Factor = 1
  Distance Pseudo DT = Real 0.01

  Linear System Solver = Direct
  Linear System Direct Method = UMFPack
  Steady State Convergence Tolerance = 1.0e-4
End


Solver 2
  Equation = K-omega

  Procedure = "SSTKomega" "SSTKomega"
  Variable = Komega[Kinetic Energy:1 Kinetic Dissipation:1]
 
  Nonlinear System Max Iterations = 5
  Nonlinear System Convergence Tolerance = 1.0e-5
  Nonlinear System Newton After Iterations = 20
  Nonlinear System Newton After Tolerance = 1.0e-3
  Nonlinear System Relaxation Factor = 0.5

  Linear System Solver = Direct
  Linear System Direct Method = UMFPack
  Steady State Convergence Tolerance = 1.0e-4
End


Solver 3
  Equation = Navier-Stokes

  Stabilization Method = Stabilized
  Nonlinear System Max Iterations = 1
  Nonlinear System Convergence Tolerance = 1.0e-5
  Nonlinear System Relaxation Factor = 0.75
  Nonlinear System Newton After Iterations = 10
  Nonlinear System Newton After Tolerance  = 1.0e-3

  Linear System Solver = Direct
  Linear System Direct Method = UMFPack
  Steady State Convergence Tolerance = 1.0e-4
End


Solver 4
  Exec Solver = After Simulation
  Equation = SaveLine
  Procedure = "SaveData" "SaveLine"
  Filename = "curve.dat"

$x = -3 3 6 14 17 20 24 27 30 34
$x = (5+x)*0.127
Polyline coordinates(20,2) =  $ x(0) 0 x(0) 1 x(1) 0 x(1) 1 x(2) 0 x(2) 1 \
                                x(3) 0 x(3) 1 x(4) 0 x(4) 1 x(5) 0 x(5) 1 \
                                x(6) 0 x(6) 1 x(7) 0 x(7) 1 x(8) 0 x(8) 1 \
                                x(9) 0 x(9) 1
End


Equation 1 :: Active Solvers(3) = 1 2 3


Material 1
  Density = 1
  Viscosity = $25*0.127/20000
  Viscosity Model = sst k-omega
End
 

Boundary Condition 1
  Target Boundaries = 1

  Velocity 1 = Equals Velocity 1
  Kinetic Energy = Equals Kinetic Energy
  Kinetic Dissipation = Equals Kinetic Dissipation
End


Boundary Condition 2
  Target Boundaries = 2

  Pressure   = 0
  Velocity 2 = 0
End


Boundary Condition 3
  Target Boundaries(2) = 3 4
  Noslip Wall BC = Logical True
End

$fprintf( stderr, "TEST CASE 1\n");
RUN
$fprintf( stderr, "END TEST CASE 1: Target NRM=8.10793096520, EPS=1e-3\n" );
